
Note: Compatibility modes selected: hs a

Warning: m=xx on .subckt line will override multiplier m hierarchy!


Circuit: ** sch_path: /foss/designs/ulqc_ldo/repo/ulqc_ldo/xschem/bandgap.sch

option SCALE: Scale is set to 1e-06 for instance and model parameters
Doing analysis at TEMP = 27.000000 and TNOM = 27.000000


No. of Data Rows : 131
ERROR: (internal)  This operation is not defined for display type PrinterOnly.
Can't open viewport for graphics.
binary raw file "bandgap.raw"
binary raw file "/foss/designs/ulqc_ldo/repo/ULQC_LDO/xschem/simulation/bandgap.raw"
Doing analysis at TEMP = 27.000000 and TNOM = 27.000000


Total analysis time (seconds) = 0.003

Total elapsed time (seconds) = 1.921 

Total DRAM available = 19785.719 MB.
DRAM currently available = 14626.508 MB.
Maximum ngspice program size =  126.965 MB.
Current ngspice program size =   93.246 MB.

Shared ngspice pages =   10.625 MB.
Text (code) pages =    5.164 MB.
Stack = 0 bytes.
Library pages =  106.820 MB.

